test/data/enwl/networks/network_10/Feeder_5/Loads.dss
New Load.LOAD1 Phases=1 Bus1=271.1 kV=0.23 kW=1 PF=0.95
New Load.LOAD2 Phases=1 Bus1=272.2 kV=0.23 kW=1 PF=0.95
New Load.LOAD3 Phases=1 Bus1=273.3 kV=0.23 kW=1 PF=0.95
New Load.LOAD4 Phases=1 Bus1=274.1 kV=0.23 kW=1 PF=0.95
New Load.LOAD5 Phases=1 Bus1=275.2 kV=0.23 kW=1 PF=0.95
New Load.LOAD6 Phases=1 Bus1=276.3 kV=0.23 kW=1 PF=0.95
New Load.LOAD7 Phases=1 Bus1=298.1 kV=0.23 kW=1 PF=0.95
New Load.LOAD8 Phases=1 Bus1=299.2 kV=0.23 kW=1 PF=0.95
New Load.LOAD9 Phases=1 Bus1=300.3 kV=0.23 kW=1 PF=0.95
New Load.LOAD10 Phases=1 Bus1=301.1 kV=0.23 kW=1 PF=0.95
New Load.LOAD11 Phases=1 Bus1=312.2 kV=0.23 kW=1 PF=0.95